
This summary information was generated by AeroDyn on 26-Feb-2024 at 16:37:31.

======  General Options  ============================================================================
            2  WakeMod        - Type of wake/induction model: Dynamic Blade-Element/Momentum Theory
            2  AFAeroMod      - Type of blade airfoil aerodynamics model: Beddoes-Leishman unsteady model
            1  TwrPotent      - Type tower influence on wind based on potential flow around the tower: baseline potential flow
            1  TwrShadow      - Calculate tower influence on wind based on downstream tower shadow: Powles tower shadow model
            T  TwrAero        - Calculate tower aerodynamic loads? Yes
======  Blade-Element/Momentum Theory Options  ======================================================
            2  SkewMod        - Type of skewed-wake correction model: Pitt/Peters
            T  TipLoss        - Use the Prandtl tip-loss model? Yes
            T  HubLoss        - Use the Prandtl hub-loss model? Yes
            T  TanInd         - Include tangential induction in BEMT calculations? Yes
            T  AIDrag         - Include the drag term in the axial-induction calculation? Yes
            T  TIDrag         - Include the drag term in the tangential-induction calculation? Yes
   5.0000E-05  IndToler       - Convergence tolerance for BEM induction factors (radians)
            2  DBEMT_Mod      - Type of dynamic BEMT (DBEMT) model: time-dependent tau1
======  Beddoes-Leishman Unsteady Airfoil Aerodynamics Options  =====================================
            5  UAMod          - Unsteady Aero Model: HGMV (continuous state + vortex)
            T  FLookup        - Use a lookup for f'? Yes
======  Outputs  ====================================================================================
            6  NBlOuts        - Number of blade nodes selected for output
           28  NumBlNds       - Number of blade nodes in the analysis
               Blade nodes selected for output:  Output node  Analysis node
                                                 -----------  -------------
                                                           1              1
                                                           2              6
                                                           3             11
                                                           4             15
                                                           5             20
                                                           6             28
            0  NTwOuts        - Number of tower nodes selected for output
               Requested Output Channels:
               Col   Parameter       Units
               ----  --------------  -----
                  0  Time                 (s)                 
                  1  RtAeroFxh            (N)                 
                  2  RtAeroFyh            (N)                 
                  3  RtAeroFzh            (N)                 
                  4  RtAeroMxh            (N-m)               
                  5  RtAeroMyh            (N-m)               
                  6  RtAeroMzh            (N-m)               
                  7  RtVAvgxh             (m/s)               
                  8  RtAeroCp             (-)                 
                  9  RtTSR                (-)                 


               Requested Output Channels at each blade station:
               Col   Parameter       Units
               ----  --------------  -----
